ELEMENTS
O  H  C  N  AR HE
END
SPECIES
H2    O2      N2      O       H       OH      H2O     HO2     H2O2
END
REACTIONS
H+O2<=>O+OH                                        1.040E+14    0.000    15310.00
O+H2<=>OH+H                                        5.080E+04    2.670     6292.00 
OH+H2<=>H+H2O                                      4.380E+13    0.000     6990.00
OH+OH=H2O+O                                        2.668E+06    1.820    -1647.00   
H2+M<=>2H+M                                        4.580E+19   -1.400   104390.00
'AR/ 0.00/ HE/ 0.00/ H2/ 2.5/ H2O/12.0/'
H2+AR<=>2H+AR                                      5.840E+18   -1.100   104390.00
H2+HE<=>2H+HE                                      5.840E+18   -1.100   104390.00
2O+M<=>O2+M                                        6.160E+15   -0.500        0.00
'AR/ 0.00/ HE/ 0.00/ H2/ 2.50/ H2O/12.00/' 
2O+AR<=>O2+AR                                      1.890E+13    0.000    -1788.00
2O+HE<=>O2+HE                                      1.890E+13    0.000    -1788.00
O+H+M<=>OH+M                                       4.710E+18   -1.000        0.00
'AR/ 0.75/ HE/ 0.75/ H2/ 2.50/ H2O/12.00/' 
H2O+M<=>H+OH+M                                     6.060E+27   -3.322   120800.00
'HE/1.1/ N2/2.0/ H2/3.0/ O2/1.50/ H2O/0.00/' 
2H2O<=>H+OH+H2O                                    1.010E+26   -2.440   120200.00
H+O2(+M)<=>HO2(+M)                                 4.650E+12    0.440        0.00
     LOW    1.225E+19   -1.200    0.00
     TROE  0.5000    1.00  1E+10 
     'AR/ 0.72/ HE/ 0.67/ H2/ 1.5/ O2/ 1.00/ H2O/17.6/' 
HO2+H<=>H2+O2                                      3.680E+06    2.087    -1455.00
HO2+H<=>2OH                                        7.080E+13    0.000      300.00
H2O+O=H+HO2                                        2.200E+08      2.0     61600.0 
HO2+O<=>OH+O2                                      1.630E+13    0.000     -445.00
HO2+OH<=>H2O+O2                                    7.000E+12    0.000    -1093.00
 DUPLICATE
HO2+OH<=>H2O+O2                                    4.500E+14    0.000    10930.00
 DUPLICATE
2HO2<=>H2O2+O2                                     1.940E+11    0.000    -1409.00
 DUPLICATE
2HO2<=>H2O2+O2                                     1.030E+14    0.000    11040.00
 DUPLICATE
H2O2(+M)<=>2OH(+M)                                 2.000E+12    0.900    48750.00
     LOW    2.490E+24   -2.300  48750.00
     TROE  0.5800    30.00  90000.00  90000.00
     'HE/0.65/ N2/1.5/ H2/3.7/ O2/1.20/ H2O/7.5/ H2O2/7.7/' 
H2O2+H=H2O+OH                                      2.030E+07     2.02     2620.00 
H2O2+H=HO2+H2                                      5.020E+06     2.07     4300.00 
H2O2+O<=>OH+HO2                                    9.630E+06    2.000     3970.00
H2O2+OH<=>H2O+HO2                                  1.740E+12    0.000      318.00
 DUPLICATE
H2O2+OH<=>H2O+HO2                                  7.590E+13    0.000     7270.00
 DUPLICATE
H+O2+H=H2+O2                                       8.800E+22   -1.835      800.00
H+O2+H=OH+OH                                       4.000E+22   -1.835      800.00
H+O2+O=OH+O2                                       7.350E+22   -1.835      800.00
H+O2+OH=H2O+O2                                     2.560E+22   -1.835      800.00 
END