! ============================================================================
! |          NUI Galway - Combustion Chemistry Centre H2/CO mechanism        |
! |            A. KEROMNES, W. K. METCALFE, S. BURKE, H. J. CURRAN           |
! |                             September 2012                               |
! ============================================================================
!
! ---------------------------    How to cite   -------------------------------
!        An experimental and detailed chemical kinetic modeling study         
!       of hydrogen and syngas mixture oxidation at elevated pressures        
! A. Keromnes, W.K. Metcalfe, K.A. Heufer, N. Donohoe, A.K. Das,              
! C-J Sung, J. Herzler, C. Naumann, P. Griebel, O. Mathieu, M.C. Krejci,      
! E.L. Petersen, W.J. Pitz, H.J. Curran                                       
! Combust. Flame (2013), http://dx.doi.org/10.1016/j.combustflame.2013.01.001 
! Combustion and Flame 160 (2013) 995–1011                                    
!-----------------------------------------------------------------------------

THERMO
   300.000  1000.000  5000.000
HE                120186HE  1               G  0300.00   5000.00  1000.00      1
 0.02500000E+02 0.00000000E+00 0.00000000E+00 0.00000000E+00 0.00000000E+00    2
-0.07453750E+04 0.09153489E+01 0.02500000E+02 0.00000000E+00 0.00000000E+00    3
 0.00000000E+00 0.00000000E+00-0.07453750E+04 0.09153488E+01                   4
H                 L 6/94H   1    0    0    0G   200.000  6000.000  1000.0      1
 0.25000000E+01 0.00000000E+00 0.00000000E+00 0.00000000E+00 0.00000000E+00    2
 0.25473660E+05-0.44668285E+00 0.25000000E+01 0.00000000E+00 0.00000000E+00    3
 0.00000000E+00 0.00000000E+00 0.25473660E+05-0.44668285E+00 0.26219035E+05    4
H2                121286H   2               G  0300.00   5000.00  1000.00      1
 0.02991423E+02 0.07000644E-02-0.05633829E-06-0.09231578E-10 0.01582752E-13    2
-0.08350340E+04-0.01355110E+02 0.03298124E+02 0.08249442E-02-0.08143015E-05    3
-0.09475434E-09 0.04134872E-11-0.01012521E+05-0.03294094E+02                   4
O                 120186O   1               G  0300.00   5000.00  1000.00      1
 0.02542060E+02-0.02755062E-03-0.03102803E-07 0.04551067E-10-0.04368052E-14    2
 0.02923080E+06 0.04920308E+02 0.02946429E+02-0.01638166E-01 0.02421032E-04    3
-0.01602843E-07 0.03890696E-11 0.02914764E+06 0.02963995E+02                   4
O2                121386O   2               G  0300.00   5000.00  1000.00      1
 0.03697578E+02 0.06135197E-02-0.01258842E-05 0.01775281E-09-0.01136435E-13    2
-0.01233930E+05 0.03189166E+02 0.03212936E+02 0.01127486E-01-0.05756150E-05    3
 0.01313877E-07-0.08768554E-11-0.01005249E+05 0.06034738E+02                   4
OH                IU3/03O   1H   1    0    0G  200.000  6000.000  1000.0       1
 2.83853033E+00 1.10741289E-03-2.94000209E-07 4.20698729E-11-2.42289890E-15    2
 3.69780808E+03 5.84494652E+00 3.99198424E+00-2.40106655E-03 4.61664033E-06    3
-3.87916306E-09 1.36319502E-12 3.36889836E+03-1.03998477E-01 4.48615380E+03    4
OH*               121286O   1H   1          G  0300.00   5000.00  1000.00      1
 0.02882730E+02 0.10139743E-02-0.02276877E-05 0.02174683E-09-0.05126305E-14    2
 5.02650000E+04 0.05595712E+02 0.03637266E+02 0.01850910E-02-0.16761646E-05    3
 0.02387202E-07-0.08431442E-11 5.00213000E+04 0.13588605E+01                   4
H2O                20387H   2O   1          G  0300.00   5000.00  1000.00      1
 0.02672146E+02 0.03056293E-01-0.08730260E-05 0.01200996E-08-0.06391618E-13    2
-0.02989921E+06 0.06862817E+02 0.03386842E+02 0.03474982E-01-0.06354696E-04    3
 0.06968581E-07-0.02506588E-10-0.03020811E+06 0.02590233E+02                   4
N2                121286N   2               G  0300.00   5000.00  1000.00      1
 0.02926640E+02 0.01487977E-01-0.05684761E-05 0.01009704E-08-0.06753351E-13    2
-0.09227977E+04 0.05980528E+02 0.03298677E+02 0.01408240E-01-0.03963222E-04    3
 0.05641515E-07-0.02444855E-10-0.01020900E+05 0.03950372E+02                   4
HO2               T 1/09H   1O   2    0    0G  200.000  5000.000  1000.0       1
 4.17228741E+00 1.88117627E-03-3.46277286E-07 1.94657549E-11 1.76256905E-16    2
 3.10206839E+01 2.95767672E+00 4.30179807E+00-4.74912097E-03 2.11582905E-05    3
-2.42763914E-08 9.29225225E-12 2.64018485E+02 3.71666220E+00 1.47886045E+03    4
H2O2              T 8/03H   2O   2    0    0G  200.000  6000.000  1000.0       1
 4.57977305E+00 4.05326003E-03-1.29844730E-06 1.98211400E-10-1.13968792E-14    2
-1.80071775E+04 6.64970694E-01 4.31515149E+00-8.47390622E-04 1.76404323E-05    3
-2.26762944E-08 9.08950158E-12-1.77067437E+04 3.27373319E+00-1.63425145E+04    4
AR                120186AR  1               G  0300.00   5000.00  1000.00      1
 0.02500000E+02 0.00000000E+00 0.00000000E+00 0.00000000E+00 0.00000000E+00    2
-0.07453750E+04 0.04366001E+02 0.02500000E+02 0.00000000E+00 0.00000000E+00    3
 0.00000000E+00 0.00000000E+00-0.07453750E+04 0.04366001E+02                   4
CO        29/11/04      C   1O   1    0    0G   300.000  5000.000 1429.000     1
 3.11216890E+00 1.15948283E-03-3.38480362E-07 4.41403098E-11-2.12862228E-15    2
-1.42718539E+04 5.71725177E+00 3.19036352E+00 8.94419972E-04-3.24927563E-08    3
-1.04599967E-10 2.41965693E-14-1.42869054E+04 5.33277914E+00                   4
CO2       29/11/04      C   1O   2    0    0G   300.000  5000.000 1380.000     1
 5.18953018E+00 2.06006476E-03-7.33575324E-07 1.17004374E-10-6.91729215E-15    2
-4.93178953E+04-5.18289303E+00 2.57930490E+00 8.24684987E-03-6.42716047E-06    3
 2.54637024E-09-4.12030443E-13-4.84162830E+04 8.81141041E+00                   4
HCO       29/11/04      H   1C   1O   1    0G   300.000  5000.000 1690.000     1
 3.44148164E+00 3.52157719E-03-1.24136118E-06 1.97328644E-10-1.16538616E-14    2
 3.97409684E+03 6.24593456E+00 3.81049965E+00 8.13269825E-04 3.13164701E-06    3
-2.39478268E-09 5.06894554E-13 4.03859901E+03 4.94843165E+00                   4
C7H16             P10/85C  7.H 16.   0.   0.G   200.000  6000.000 1000.        1
 2.04565203E+01 3.48575357E-02-1.09226846E-05 1.67201776E-09-9.81024850E-14    2
-3.25556365E+04-8.04405017E+01 1.11532994E+01-9.49419773E-03 1.95572075E-04    3
-2.49753662E-07 9.84877715E-11-2.67688904E+04-1.59096837E+01                   4
C7H15    7/19/ 0 thermc   7h  15    0    0g   300.000  5000.000 1390.000       1
 2.17940709E+01 3.26280243E-02-1.11138244E-05 1.72067148E-09-9.96366999E-14    2
-9.20938221E+03-8.64954311E+01-4.99570406E-01 8.08826467E-02-5.00532754E-05    3
 1.56549308E-08-1.96616227E-12-1.04590223E+03 3.46564011E+01                   4
C7H15O2  7/19/ 0 THERMC   7H  15O   2    0G   300.000  5000.000 1390.000       1
 2.60535640E+01 3.43831688E-02-1.18713247E-05 1.85450241E-09-1.08052399E-13    2
-3.06842095E+04-1.05407563E+02 3.55252917E-01 9.42381007E-02-6.66955106E-05    3
 2.54795583E-08-4.13211105E-12-2.15795254E+04 3.29433435E+01                   4
C7H14O2H 7/19/0 THERMC   7H  15O   2    0G   300.000  5000.000 1383.000        1
 2.72290222E+01 3.24921901E-02-1.11259758E-05 1.72928878E-09-1.00428326E-13    2
-2.24977070E+04-1.08901784E+02 1.11146206E+00 8.91595392E-02-5.67352382E-05    3
 1.78890094E-08-2.22260206E-12-1.29868314E+04 3.29200052E+01                   4
C7H14O2HO2 7/19/0 TRMC   7H  15O   4    0G   300.000  5000.000 1388.000        1
 3.20144349E+01 3.40055996E-02-1.18415856E-05 1.86060347E-09-1.08851012E-13    2
-4.27171859E+04-1.31118243E+02 1.89718004E+00 1.06229796E-01-8.02770218E-05    3
 3.23649093E-08-5.45850472E-12-3.22790229E+04 3.02474612E+01                   4
C7KET21   7/19/ 0 THERMC   7H  14O   3    0G   300.000  5000.000 1385.000      1
 3.07082732E+01 2.92465419E-02-9.95807579E-06 1.54315782E-09-8.94718150E-14    2
-5.87615592E+04-1.27058904E+02-9.64230115E-01 1.08158991E-01-8.67775775E-05    3
 3.61807459E-08-6.14661796E-12-4.82404885E+04 4.13251144E+01                   4
C5H11CO   2/29/96 THERMC   6H  11O   1    0G   300.000  5000.000 1383.000      1
 1.94783812E+01 2.50466029E-02-8.54861346E-06 1.32557944E-09-7.68503296E-14    2
-2.07923937E+04-7.21995578E+01 2.14479069E+00 6.17863563E-02-3.74134690E-05    3
 1.13283795E-08-1.36917698E-12-1.43451172E+04 2.23128045E+01                   4
CH2O      6/29/04 RUSCIC   1H   2O   1    0G   300.000  5000.000 1486.000      1
 4.02068394E+00 5.09903417E-03-1.76430480E-06 2.76025879E-10-1.60998042E-14    2
-1.49287258E+04 1.06525547E+00 3.00754197E+00 3.04729496E-03 5.25109246E-06    3
-5.12019281E-09 1.27133795E-12-1.41188397E+04 8.10120233E+00                   4
C2H5      8/ 4/ 4 THERMC   2H   5    0    0G   300.000  5000.000 1387.000      1
 5.88784390E+00 1.03076793E-02-3.46844396E-06 5.32499257E-10-3.06512651E-14    2
 1.15065499E+04-8.49651771E+00 1.32730217E+00 1.76656753E-02-6.14926558E-06    3
-3.01143466E-10 4.38617775E-13 1.34284028E+04 1.71789216E+01                   4
C3H6      10/23/ 5 THERMC   3H   6    0    0G   300.000  5000.000 1388.000     1
 8.01595958E+00 1.37023634E-02-4.66249733E-06 7.21254402E-10-4.17370126E-14    2
-1.76749303E+03-2.00160668E+01 3.94615444E-01 2.89107662E-02-1.54886808E-05    3
 3.88814209E-09-3.37890352E-13 1.17760132E+03 2.19003736E+01                   4
CO        29/11/04      C   1O   1    0    0G   300.000  5000.000 1429.000     1
 3.11216890E+00 1.15948283E-03-3.38480362E-07 4.41403098E-11-2.12862228E-15    2
-1.42718539E+04 5.71725177E+00 3.19036352E+00 8.94419972E-04-3.24927563E-08    3
-1.04599967E-10 2.41965693E-14-1.42869054E+04 5.33277914E+00                   4
CO2       29/11/04      C   1O   2    0    0G   300.000  5000.000 1380.000     1
 5.18953018E+00 2.06006476E-03-7.33575324E-07 1.17004374E-10-6.91729215E-15    2
-4.93178953E+04-5.18289303E+00 2.57930490E+00 8.24684987E-03-6.42716047E-06    3
 2.54637024E-09-4.12030443E-13-4.84162830E+04 8.81141041E+00                   4
HCO       29/11/04      H   1C   1O   1    0G   300.000  5000.000 1690.000     1
 3.44148164E+00 3.52157719E-03-1.24136118E-06 1.97328644E-10-1.16538616E-14    2
 3.97409684E+03 6.24593456E+00 3.81049965E+00 8.13269825E-04 3.13164701E-06    3
-2.39478268E-09 5.06894554E-13 4.03859901E+03 4.94843165E+00                   4
CH3                     C   1H   3    0    0G   300.000  5000.000 1389.000     1
 3.51281376E+00 5.11412613E-03-1.67632050E-06 2.52495174E-10-1.43302923E-14    2
 1.61238027E+04 1.62436112E+00 3.43858162E+00 4.07752664E-03 3.19830994E-07    3
-9.47669390E-10 2.21828166E-13 1.63164018E+04 2.52807406E+00                   4
CH3CHO     8/10/ 4 THERMC   2H   4O   1    0G   300.000  5000.000 1377.000     1
 6.98518866E+00 9.67897787E-03-3.31841954E-06 5.16025901E-10-2.99725903E-14    2
-2.39807279E+04-1.27484852E+01 1.77060035E+00 1.84475161E-02-7.24138162E-06    3
 2.34364561E-10 3.35543891E-13-2.18078850E+04 1.65023437E+01                   4
C2H4      10/ 4/ 5 THERMC   2H   4    0    0G   300.000  5000.000 1395.000     1
 5.22176372E+00 8.96137303E-03-3.04868886E-06 4.71465524E-10-2.72739592E-14    2
 3.60389679E+03-7.47789234E+00 2.33879687E-01 1.96334647E-02-1.16833214E-05    3
 3.64246453E-09-4.77442715E-13 5.46489338E+03 1.97084228E+01                   4
CH4       29/11/04      H   4C   1    0    0G   300.000  5000.000 1462.000     1
 4.09617653E+00 7.44330845E-03-2.63871900E-06 4.19577604E-10-2.47508050E-14    2
-1.13835704E+04-4.67561383E+00 3.72113020E+00-2.50293289E-03 1.90246534E-05    3
-1.46871253E-08 3.43791152E-12-1.01424099E+04 1.22776596E+00                   4
NH3               J 6/77N   1H   3          G   200.000  6000.000  1000.000    1
 0.26344521E+01 0.56662560E-02-0.17278676E-05 0.23867161E-09-0.12578786E-13    2
-0.65446958E+04 0.65662928E+01 0.42860274E+01-0.46605230E-02 0.21718513E-04    3
-0.22808887E-07 0.82638046E-11-0.67417285E+04-0.62537277E+00                   4
END